Circuit: * C:\Users\tjagielski\Documents\Projects\School\Sophomore - Semester 2\Circuits\MicroelectronicCircuits\lab5\LTspice\Experiment2_pmos.asc


Date: Sun Mar 29 19:38:41 2020
Total elapsed time: 0.048 seconds.

tnom = 27
temp = 27
method = trap
totiter = 1003
traniter = 0
tranpoints = 0
accept = 0
rejected = 0
matrix size = 14
fillins = 0
solver = Normal
Matrix Compiler1: 438 bytes object code size  0.1/0.1/[0.0]
Matrix Compiler2: 906 bytes object code size  0.1/0.1/[0.0]

