Circuit: * C:\Users\tjagielski\Documents\Projects\School\Sophomore - Semester 2\Circuits\Labs\Lab 5\LTspice\Experiment1_pmos.asc


Date: Wed Mar 25 13:03:52 2020
Total elapsed time: 0.182 seconds.

tnom = 27
temp = 27
method = trap
totiter = 1005
traniter = 0
tranpoints = 0
accept = 0
rejected = 0
matrix size = 14
fillins = 0
solver = Normal
Matrix Compiler1: 366 bytes object code size  0.2/0.1/[0.1]
Matrix Compiler2: 970 bytes object code size  0.2/0.2/[0.1]

