Circuit: * C:\Users\tjagielski\Documents\Projects\School\Sophomore - Semester 2\Circuits\MicroelectronicCircuits\lab8\Simulation\Experiment1.asc

Direct Newton iteration failed to find .op point.  (Use ".option noopiter" to skip.)
Starting Gmin stepping
Gmin = 10
Gmin = 1.07374
Gmin = 0.115292
Gmin = 0.0123794
Gmin = 0.00132923
Gmin = 0.000142725
Gmin = 1.5325e-05
Gmin = 1.6455e-06
Gmin = 1.76685e-07
Gmin = 1.89714e-08
Gmin = 2.03704e-09
Gmin = 2.18725e-10
Gmin = 2.34854e-11
Gmin = 2.52173e-12
Gmin = 2.70769e-13
Gmin = 0
Gmin stepping succeeded in finding the operating point.


Date: Wed Apr 15 12:12:43 2020
Total elapsed time: 0.107 seconds.

tnom = 27
temp = 27
method = trap
totiter = 1567
traniter = 0
tranpoints = 0
accept = 0
rejected = 0
matrix size = 27
fillins = 20
solver = Normal
Matrix Compiler1:     100 opcodes  0.3/0.2/[0.1]
Matrix Compiler2: 2.39 KB object code size  0.2/0.2/[0.1]

