Circuit: * C:\Users\tjagielski\Documents\Projects\School\Sophomore - Semester 2\Circuits\MicroelectronicCircuits\lab8\Simulation\Experiment2.asc

WARNING: Less than two connections to node VOUT.  This node is used by V§IOUT.

Date: Wed Apr 15 12:35:16 2020
Total elapsed time: 0.297 seconds.

tnom = 27
temp = 27
method = trap
totiter = 16019
traniter = 0
tranpoints = 0
accept = 0
rejected = 0
matrix size = 29
fillins = 15
solver = Normal
Matrix Compiler1: 1.51 KB object code size  0.4/0.2/[0.1]
Matrix Compiler2: 2.44 KB object code size  0.3/0.3/[0.1]

