Circuit: * C:\Users\tjagielski\Documents\Projects\School\Sophomore - Semester 2\Circuits\MicroelectronicCircuits\lab8\Simulation\Experiment2.asc


Date: Wed Apr 15 12:54:44 2020
Total elapsed time: 0.086 seconds.

tnom = 27
temp = 27
method = trap
totiter = 1020
traniter = 0
tranpoints = 0
accept = 0
rejected = 0
matrix size = 30
fillins = 8
solver = Normal
Matrix Compiler1: 1.30 KB object code size  0.6/0.3/[0.1]
Matrix Compiler2: 2.36 KB object code size  0.4/0.5/[0.1]

