Circuit: * C:\Users\tjagielski\Documents\Projects\School\Sophomore - Semester 2\Circuits\MicroelectronicCircuits\lab8\Simulation\Experiment2.asc

WARNING: Less than two connections to node VOUT.  This node is used by V§IOUT.
WARNING: Less than two connections to node NC_01.  This node is used by VOUT.

Date: Sat Apr 18 09:43:47 2020
Total elapsed time: 0.169 seconds.

tnom = 27
temp = 27
method = trap
totiter = 6018
traniter = 0
tranpoints = 0
accept = 0
rejected = 0
matrix size = 31
fillins = 15
solver = Normal
Matrix Compiler1: 1.54 KB object code size  0.3/0.2/[0.1]
Matrix Compiler2: off  [0.2]/0.2/0.2

