Circuit: * C:\Users\tjagielski\Documents\Projects\School\Sophomore - Semester 2\Circuits\Labs\Lab 5\LTspice\Experiment2_pmos.asc

WARNING: Node $G_VDD is floating.

WARNING: Less than two connections to node $G_VDD.  This node is used by M:U1:P1.
.OP point found by inspection.

Date: Wed Mar 25 13:18:59 2020
Total elapsed time: 0.211 seconds.

tnom = 27
temp = 27
method = trap
totiter = 1001
traniter = 0
tranpoints = 0
accept = 0
rejected = 0
matrix size = 9
fillins = 0
solver = Normal
Matrix Compiler1: 296 bytes object code size  0.1/0.1/[0.0]
Matrix Compiler2: 635 bytes object code size  0.1/0.1/[0.0]

