Circuit: * C:\Users\tjagielski\Documents\Projects\School\Sophomore - Semester 2\Circuits\MicroelectronicCircuits\lab5\LTspice\Experiment3_pmos.asc

WARNING: Node $G_VDD is floating.

WARNING: Less than two connections to node $G_VDD.  This node is used by M:U1:P1.

Date: Sat Mar 28 21:18:02 2020
Total elapsed time: 0.155 seconds.

tnom = 27
temp = 27
method = trap
totiter = 1025
traniter = 0
tranpoints = 0
accept = 0
rejected = 0
matrix size = 7
fillins = 0
solver = Normal
Matrix Compiler1: 358 bytes object code size  0.4/0.2/[0.1]
Matrix Compiler2: 487 bytes object code size  0.3/0.3/[0.1]

