Circuit: * C:\Users\sbansal\Desktop\Circuits\MicroelectronicCircuits\lab5\LTspice\Experiment3_pmos.asc

WARNING: Node $G_VDD is floating.

WARNING: Less than two connections to node $G_VDD.  This node is used by M:U1:P1.

Date: Fri Mar 27 21:06:25 2020
Total elapsed time: 0.039 seconds.

tnom = 27
temp = 27
method = trap
totiter = 1024
traniter = 0
tranpoints = 0
accept = 0
rejected = 0
matrix size = 7
fillins = 0
solver = Normal
Matrix Compiler1: 358 bytes object code size  0.1/0.0/[0.0]
Matrix Compiler2: 487 bytes object code size  0.0/0.1/[0.0]

