Circuit: * C:\Users\sbansal\Desktop\Circuits\MicroelectronicCircuits\lab5\LTspice\Experiment3_nmos.asc


Date: Fri Mar 27 21:04:50 2020
Total elapsed time: 0.041 seconds.

tnom = 27
temp = 27
method = trap
totiter = 1004
traniter = 0
tranpoints = 0
accept = 0
rejected = 0
matrix size = 4
fillins = 0
solver = Normal
Matrix Compiler1: 118 bytes object code size  0.0/0.0/[0.0]
Matrix Compiler2: off  [0.0]/0.0/0.0

