Circuit: * C:\Users\tjagielski\Documents\Projects\School\Sophomore - Semester 2\Circuits\MicroelectronicCircuits\lab5\LTspice\Experiment3_nmos.asc

WARNING: Less than two connections to node $G_VDD.  This node is used by V:U2:1.

Date: Sun Mar 29 16:46:38 2020
Total elapsed time: 0.065 seconds.

tnom = 27
temp = 27
method = trap
totiter = 1004
traniter = 0
tranpoints = 0
accept = 0
rejected = 0
matrix size = 8
fillins = 0
solver = Normal
Matrix Compiler1: 192 bytes object code size  0.0/0.0/[0.0]
Matrix Compiler2: 406 bytes object code size  0.0/0.1/[0.0]

