Circuit: * C:\Users\sbansal\Desktop\Circuits\MicroelectronicCircuits\lab9\Simulation\Experiment 3 - Current-Mirror Differential Amplifier Part 2 SI.asc

Direct Newton iteration for .op point succeeded.

Date: Sat Apr 25 00:53:53 2020
Total elapsed time: 1.501 seconds.

tnom = 27
temp = 27
method = modified trap
totiter = 26184
traniter = 26165
tranpoints = 13033
accept = 13033
rejected = 0
matrix size = 35
fillins = 21
solver = Normal
Matrix Compiler1: 2.28 KB object code size  0.5/0.3/[0.2]
Matrix Compiler2: off  [0.2]/0.7/0.4

