Circuit: * C:\Users\tjagielski\Documents\Projects\School\Sophomore - Semester 2\Circuits\MicroelectronicCircuits\lab9\Simulation\Experiment 2 - Current-Mirror Differential Amplifier.asc


Date: Wed Apr 22 12:29:48 2020
Total elapsed time: 2.412 seconds.

tnom = 27
temp = 27
method = trap
totiter = 100043
traniter = 0
tranpoints = 0
accept = 0
rejected = 0
matrix size = 38
fillins = 7
solver = Normal
Matrix Compiler1: 1.65 KB object code size  0.6/0.4/[0.2]
Matrix Compiler2: 2.98 KB object code size  0.4/0.7/[0.2]

