Circuit: * C:\Users\sbansal\Desktop\Circuits\MicroelectronicCircuits\lab9\Simulation\Experiment 3 - Current-Mirror Differential Amplifier Part 2.asc

Direct Newton iteration for .op point succeeded.

Date: Sat Apr 25 01:01:08 2020
Total elapsed time: 152.933 seconds.

tnom = 27
temp = 27
method = modified trap
totiter = 2400080
traniter = 2400058
tranpoints = 1200030
accept = 1200030
rejected = 0
matrix size = 35
fillins = 21
solver = Normal
Matrix Compiler1: 2.28 KB object code size  0.4/0.3/[0.1]
Matrix Compiler2: off  [0.2]/0.3/0.3

