Circuit: * C:\Users\tjagielski\Documents\Projects\School\Sophomore - Semester 2\Circuits\MicroelectronicCircuits\lab9\Simulation\Experiment 3 - Current-Mirror Differential Amplifier.asc

Direct Newton iteration for .op point succeeded.

Date: Fri Apr 24 09:37:31 2020
Total elapsed time: 0.842 seconds.

tnom = 27
temp = 27
method = modified trap
totiter = 20165
traniter = 20143
tranpoints = 10048
accept = 10043
rejected = 5
matrix size = 35
fillins = 21
solver = Normal
Matrix Compiler1: 2.28 KB object code size  0.4/0.2/[0.1]
Matrix Compiler2: 3.08 KB object code size  0.2/0.3/[0.2]

