Circuit: * C:\Users\tjagielski\Documents\Projects\School\Sophomore - Semester 2\Circuits\MicroelectronicCircuits\lab9\Simulation\Experiment 1 - Current-Mirror Differential Amplifier.asc

WARNING: Less than two connections to node VOUT.  This node is used by V§IOUT.
Direct Newton iteration failed to find .op point.  (Use ".option noopiter" to skip.)
Starting Gmin stepping
Gmin = 10
Gmin = 1.07374
Gmin = 0.115292
Gmin = 0.0123794
Gmin = 0.00132923
Gmin = 0.000142725
Gmin = 1.5325e-005
Gmin = 1.6455e-006
Gmin = 1.76685e-007
Gmin = 1.89714e-008
Gmin = 2.03704e-009
Gmin = 2.18725e-010
Gmin = 2.34854e-011
Gmin = 2.52173e-012
Gmin = 2.70769e-013
Gmin = 0
Gmin stepping succeeded in finding the operating point.


Date: Mon Apr 27 13:39:09 2020
Total elapsed time: 1.734 seconds.

tnom = 27
temp = 27
method = trap
totiter = 100557
traniter = 0
tranpoints = 0
accept = 0
rejected = 0
matrix size = 37
fillins = 19
solver = Normal
Matrix Compiler1:     126 opcodes  0.5/0.4/[0.2]
Matrix Compiler2: 3.11 KB object code size  0.4/0.5/[0.3]

