Circuit: * C:\Users\tjagielski\Documents\Projects\School\Sophomore - Semester 2\Circuits\MicroelectronicCircuits\lab9\Simulation\Experiment 3 - Current-Mirror Differential Amplifier Part 2.asc

Direct Newton iteration for .op point succeeded.
