Circuit: * C:\Users\tjagielski\Documents\Projects\School\Sophomore - Semester 2\Circuits\MicroelectronicCircuits\lab9\Simulation\Experiment 3 - Current-Mirror Differential Amplifier.asc

Direct Newton iteration for .op point succeeded.

Date: Fri Apr 24 13:36:17 2020
Total elapsed time: 2.493 seconds.

tnom = 27
temp = 27
method = modified trap
totiter = 30086
traniter = 30064
tranpoints = 15033
accept = 15033
rejected = 0
matrix size = 35
fillins = 21
solver = Normal
Matrix Compiler1: 2.28 KB object code size  1.1/0.5/[0.3]
Matrix Compiler2: off  [0.5]/0.8/0.6

