Circuit: * C:\Users\tjagielski\Documents\Projects\School\Sophomore - Semester 2\Circuits\MicroelectronicCircuits\lab9\Simulation\Experiment 3 - Current-Mirror Differential Amplifier.asc

Direct Newton iteration for .op point succeeded.

Date: Wed Apr 22 13:00:35 2020
Total elapsed time: 0.355 seconds.

tnom = 27
temp = 27
method = modified trap
totiter = 2132
traniter = 2110
tranpoints = 1053
accept = 1053
rejected = 0
matrix size = 35
fillins = 21
solver = Normal
Matrix Compiler1: 2.28 KB object code size  1.1/0.7/[0.3]
Matrix Compiler2: 3.08 KB object code size  1.3/0.9/[0.6]

