Circuit: * C:\Users\tjagielski\Documents\Projects\School\Sophomore - Semester 2\Circuits\MicroelectronicCircuits\lab9\Simulation\Experiment 3 - Current-Mirror Differential Amplifier.asc

Direct Newton iteration for .op point succeeded.

Date: Fri Apr 24 14:12:18 2020
Total elapsed time: 24.302 seconds.

tnom = 27
temp = 27
method = modified trap
totiter = 600086
traniter = 600064
tranpoints = 300033
accept = 300033
rejected = 0
matrix size = 35
fillins = 21
solver = Normal
Matrix Compiler1: 2.28 KB object code size  0.4/0.2/[0.1]
Matrix Compiler2: off  [0.2]/0.3/0.6

