Circuit: * C:\Users\tjagielski\Documents\Projects\School\Sophomore - Semester 2\Circuits\MicroelectronicCircuits\lab6\Simulations\Experiment3_circuit_a.asc


Date: Fri Apr  3 08:32:28 2020
Total elapsed time: 0.085 seconds.

tnom = 27
temp = 27
method = trap
totiter = 251
traniter = 0
tranpoints = 0
accept = 0
rejected = 0
matrix size = 10
fillins = 0
solver = Normal
Matrix Compiler1:      17 opcodes  0.1/[0.0]/0.0
Matrix Compiler2: off  [0.1]/0.1/0.1

