Circuit: * C:\Users\tjagielski\Documents\Projects\School\Sophomore - Semester 2\Circuits\MicroelectronicCircuits\lab6\Simulations\Experiment3_circuit_b.asc


Date: Wed Apr  1 12:58:09 2020
Total elapsed time: 0.141 seconds.

tnom = 27
temp = 27
method = trap
totiter = 45
traniter = 0
tranpoints = 0
accept = 0
rejected = 0
matrix size = 14
fillins = 0
solver = Normal
Matrix Compiler1: 420 bytes object code size
Matrix Compiler2: 998 bytes object code size
