Circuit: * C:\Users\sbansal\Desktop\Circuits\MicroelectronicCircuits\project\Schematics\Circuit_Indirect_Vout.asc

WARNING: Less than two connections to node V2.  This node is used by V2.
Direct Newton iteration failed to find .op point.  (Use ".option noopiter" to skip.)
Starting Gmin stepping
Gmin = 10
Gmin = 1.07374
Gmin = 0.115292
Gmin = 0.0123794
Gmin = 0.00132923
Gmin = 0.000142725
Gmin = 1.5325e-005
Gmin = 1.6455e-006
Gmin = 1.76685e-007
Gmin = 1.89714e-008
Gmin = 2.03704e-009
Gmin = 2.18725e-010
Gmin = 2.34854e-011
Gmin = 2.52173e-012
Gmin = 2.70769e-013
Gmin = 0
Gmin stepping succeeded in finding the operating point.


Date: Sat May 02 21:28:23 2020
Total elapsed time: 1.404 seconds.

tnom = 27
temp = 27
method = modified trap
totiter = 25671
traniter = 25153
tranpoints = 12018
accept = 12018
rejected = 0
matrix size = 47
fillins = 2
solver = Normal
Matrix Compiler1:     163 opcodes  0.7/[0.4]/0.6
Matrix Compiler2: 4.08 KB object code size  0.5/0.6/[0.3]

