Circuit: * C:\Users\sbansal\Desktop\Circuits\MicroelectronicCircuits\project\Schematics\Circuit_Feedforward.asc

Instance "m20": Length shorter than recommended for a level 1 MOSFET.
Instance "m18": Length shorter than recommended for a level 1 MOSFET.
Instance "m14": Length shorter than recommended for a level 1 MOSFET.
Instance "m13": Length shorter than recommended for a level 1 MOSFET.
Instance "m11": Length shorter than recommended for a level 1 MOSFET.
Instance "m10": Length shorter than recommended for a level 1 MOSFET.
Instance "m9": Length shorter than recommended for a level 1 MOSFET.
Instance "m8": Length shorter than recommended for a level 1 MOSFET.
Instance "m5": Length shorter than recommended for a level 1 MOSFET.
Instance "m4": Length shorter than recommended for a level 1 MOSFET.
Instance "m3": Length shorter than recommended for a level 1 MOSFET.
Instance "m1": Length shorter than recommended for a level 1 MOSFET.
Direct Newton iteration failed to find .op point.  (Use ".option noopiter" to skip.)
Starting Gmin stepping
Gmin = 10
Gmin = 1.07374
vernier = 0.5
vernier = 0.666667
Gmin = 0.402032
vernier = 0.888888
vernier = 1
Gmin = 0.0567082
Gmin = 0.006089
Gmin = 0.000653801
Gmin = 7.02013e-005
vernier = 0.5
Gmin = 1.17778e-005
vernier = 0.666667
Gmin = 3.02391e-006
vernier = 0.888888
vernier = 1
Gmin = 3.98099e-007
Gmin = 4.27456e-008
Gmin = 4.58977e-009
Gmin = 4.92823e-010
Gmin = 5.29164e-011
Gmin = 5.68186e-012
Gmin = 6.10085e-013
Gmin = 0
Gmin stepping succeeded in finding the operating point.


Date: Wed May 06 13:22:17 2020
Total elapsed time: 0.110 seconds.

tnom = 27
temp = 27
method = trap
totiter = 758
traniter = 0
tranpoints = 0
accept = 0
rejected = 0
matrix size = 55
fillins = 35
solver = Normal
Matrix Compiler1:     200 opcodes
Matrix Compiler2: off  [0.5]/0.5/0.6

