Circuit: * C:\Users\sbansal\Desktop\Circuits\MicroelectronicCircuits\project\Schematics\Circuit_Uncompensated.asc

WARNING: Less than two connections to node V2.  This node is used by V2.
Direct Newton iteration failed to find .op point.  (Use ".option noopiter" to skip.)
Starting Gmin stepping
Gmin = 10
Gmin = 1.07374
Gmin = 0.115292
Gmin = 0.0123794
Gmin = 0.00132923
Gmin = 0.000142725
Gmin = 1.5325e-005
Gmin = 1.6455e-006
Gmin = 1.76685e-007
Gmin = 1.89714e-008
Gmin = 2.03704e-009
Gmin = 2.18725e-010
Gmin = 2.34854e-011
Gmin = 2.52173e-012
Gmin = 2.70769e-013
Gmin = 0
Gmin stepping succeeded in finding the operating point.

Ignoring empty pin current: Ix(u1:drain)
Ignoring empty pin current: Ix(u1:gate)
Ignoring empty pin current: Ix(u1:source)
Ignoring empty pin current: Ix(u2:drain)
Ignoring empty pin current: Ix(u2:gate)
Ignoring empty pin current: Ix(u2:source)
Ignoring empty pin current: Ix(u3:drain)
Ignoring empty pin current: Ix(u3:gate)
Ignoring empty pin current: Ix(u3:source)
Ignoring empty pin current: Ix(u4:drain)
Ignoring empty pin current: Ix(u4:gate)
Ignoring empty pin current: Ix(u4:source)
Ignoring empty pin current: Ix(u5:drain)
Ignoring empty pin current: Ix(u5:gate)
Ignoring empty pin current: Ix(u5:source)
Ignoring empty pin current: Ix(u6:drain)
Ignoring empty pin current: Ix(u6:gate)
Ignoring empty pin current: Ix(u6:source)
Ignoring empty pin current: Ix(u7:drain)
Ignoring empty pin current: Ix(u7:gate)
Ignoring empty pin current: Ix(u7:source)
Ignoring empty pin current: Ix(u8:drain)
Ignoring empty pin current: Ix(u8:gate)
Ignoring empty pin current: Ix(u8:source)
Ignoring empty pin current: Ix(u9:drain)
Ignoring empty pin current: Ix(u9:gate)
Ignoring empty pin current: Ix(u9:source)
Ignoring empty pin current: Ix(u10:drain)
Ignoring empty pin current: Ix(u10:gate)
Ignoring empty pin current: Ix(u10:source)
Ignoring empty pin current: Ix(u11:drain)
Ignoring empty pin current: Ix(u11:gate)
Ignoring empty pin current: Ix(u11:source)
Ignoring empty pin current: Ix(u12:drain)
Ignoring empty pin current: Ix(u12:gate)
Ignoring empty pin current: Ix(u12:source)

Date: Sun May 03 12:52:33 2020
Total elapsed time: 0.296 seconds.

tnom = 27
temp = 27
method = trap
totiter = 496
traniter = 0
tranpoints = 0
accept = 0
rejected = 0
matrix size = 49
fillins = 13
solver = Normal
Matrix Compiler1:     157 opcodes
Matrix Compiler2: 4.16 KB object code size  0.7/0.8/[0.7]

