Circuit: * C:\Users\sbansal\Desktop\Circuits\MicroelectronicCircuits\project\Schematics\Circuit_Uncompensated.asc

WARNING: Less than two connections to node V2.  This node is used by V2.
Direct Newton iteration failed to find .op point.  (Use ".option noopiter" to skip.)
Starting Gmin stepping
Gmin = 10
Gmin = 1.07374
Gmin = 0.115292
Gmin = 0.0123794
Gmin = 0.00132923
Gmin = 0.000142725
Gmin = 1.5325e-005
Gmin = 1.6455e-006
Gmin = 1.76685e-007
Gmin = 1.89714e-008
Gmin = 2.03704e-009
Gmin = 2.18725e-010
Gmin = 2.34854e-011
Gmin = 2.52173e-012
Gmin = 2.70769e-013
Gmin = 0
Gmin stepping succeeded in finding the operating point.


Date: Sat May 02 21:28:50 2020
Total elapsed time: 0.147 seconds.

tnom = 27
temp = 27
method = modified trap
totiter = 1391
traniter = 895
tranpoints = 211
accept = 156
rejected = 55
matrix size = 49
fillins = 13
solver = Normal
Thread vector: 10.6/8.7[2] 1.6/2.0[1] 0.9/1.6[1] 0.2/1.5[1]  2592/500
Matrix Compiler1: 2.64 KB object code size  0.6/0.3/[0.2]
Matrix Compiler2: 4.16 KB object code size  0.7/0.9/[0.3]

