Circuit: * C:\Users\sbansal\Desktop\Circuits\MicroelectronicCircuits\project\Schematics\Circuit_Feedforward_Vout.asc

Instance "m20": Length shorter than recommended for a level 1 MOSFET.
Instance "m20": Width narrower than recommended for a level 1 MOSFET.
Instance "m18": Length shorter than recommended for a level 1 MOSFET.
Instance "m18": Width narrower than recommended for a level 1 MOSFET.
Instance "m14": Length shorter than recommended for a level 1 MOSFET.
Instance "m14": Width narrower than recommended for a level 1 MOSFET.
Instance "m13": Length shorter than recommended for a level 1 MOSFET.
Instance "m13": Width narrower than recommended for a level 1 MOSFET.
Instance "m11": Length shorter than recommended for a level 1 MOSFET.
Instance "m11": Width narrower than recommended for a level 1 MOSFET.
Instance "m10": Length shorter than recommended for a level 1 MOSFET.
Instance "m10": Width narrower than recommended for a level 1 MOSFET.
Instance "m9": Length shorter than recommended for a level 1 MOSFET.
Instance "m9": Width narrower than recommended for a level 1 MOSFET.
Instance "m8": Length shorter than recommended for a level 1 MOSFET.
Instance "m8": Width narrower than recommended for a level 1 MOSFET.
Instance "m5": Length shorter than recommended for a level 1 MOSFET.
Instance "m5": Width narrower than recommended for a level 1 MOSFET.
Instance "m4": Length shorter than recommended for a level 1 MOSFET.
Instance "m4": Width narrower than recommended for a level 1 MOSFET.
Instance "m3": Length shorter than recommended for a level 1 MOSFET.
Instance "m3": Width narrower than recommended for a level 1 MOSFET.
Instance "m1": Length shorter than recommended for a level 1 MOSFET.
Instance "m1": Width narrower than recommended for a level 1 MOSFET.
Direct Newton iteration failed to find .op point.  (Use ".option noopiter" to skip.)
Starting Gmin stepping
Gmin = 10
Gmin = 1.07374
vernier = 0.5
vernier = 0.666667
Gmin = 0.402032
vernier = 0.888888
vernier = 1
Gmin = 0.0567082
Gmin = 0.006089
Gmin = 0.000653801
Gmin = 7.02013e-005
Gmin = 7.53781e-006
Gmin = 8.09366e-007
Gmin = 8.6905e-008
Gmin = 9.33136e-009
Gmin = 1.00195e-009
Gmin = 1.07583e-010
vernier = 0.5
vernier = 0.25
vernier = 0.125
vernier = 0.0625
vernier = 0.0833333
Gmin = 1.21908e-010
vernier = 0.111111
Gmin = 9.58876e-011
vernier = 0.148148
vernier = 0.197531
Gmin = 6.49077e-011
vernier = 0.263374
vernier = 0.351165
Gmin = 3.52199e-011
vernier = 0.46822
Gmin = 1.3295e-011
vernier = 0.624294
vernier = 0.832392
Gmin = 2.82744e-012
vernier = 1
Gmin = 3.36292e-013
Gmin = 0
Gmin stepping succeeded in finding the operating point.


Date: Thu May 07 15:15:52 2020
Total elapsed time: 0.172 seconds.

tnom = 27
temp = 27
method = modified trap
totiter = 4030
traniter = 2839
tranpoints = 1138
accept = 1107
rejected = 31
matrix size = 55
fillins = 41
solver = Normal
Thread vector: 3.3/2.8[2] 1.7/1.7[1] 0.7/1.3[1] 0.2/0.9[1]  2592/500
Matrix Compiler1: 3.62 KB object code size  0.7/0.3/[0.1]
Matrix Compiler2: 5.31 KB object code size  0.6/0.8/[0.3]

