Circuit: * C:\Users\tjagielski\Documents\Projects\School\Sophomore - Semester 2\Circuits\Labs\Lab 7\NMOS_diff_pair.asc


Date: Wed Apr  8 12:39:30 2020
Total elapsed time: 0.090 seconds.

tnom = 27
temp = 27
method = trap
totiter = 3218
traniter = 0
tranpoints = 0
accept = 0
rejected = 0
matrix size = 21
fillins = 1
solver = Normal
Matrix Compiler1: 626 bytes object code size  0.1/0.2/[0.1]
Matrix Compiler2: off  [0.1]/0.3/0.2

