Circuit: * C:\Users\sbansal\Desktop\Circuits\MicroelectronicCircuits\lab7\NMOS_diff_pair.asc


Date: Tue Apr 14 13:00:47 2020
Total elapsed time: 0.175 seconds.

tnom = 27
temp = 27
method = trap
totiter = 3218
traniter = 0
tranpoints = 0
accept = 0
rejected = 0
matrix size = 21
fillins = 1
solver = Normal
Matrix Compiler1: 626 bytes object code size  0.2/0.1/[0.1]
Matrix Compiler2: 1.35 KB object code size  0.1/0.2/[0.1]

