Circuit: * C:\Users\sbansal\Desktop\Circuits\MicroelectronicCircuits\lab7\PMOS_diff_pair.asc


Date: Sun Apr 12 13:14:27 2020
Total elapsed time: 0.145 seconds.

tnom = 27
temp = 27
method = trap
totiter = 3220
traniter = 0
tranpoints = 0
accept = 0
rejected = 0
matrix size = 13
fillins = 0
solver = Normal
Matrix Compiler1: 388 bytes object code size  0.1/0.1/[0.0]
Matrix Compiler2: 1019 bytes object code size  0.1/0.1/[0.1]

